90
output/vis18/L3S3.xyz
C	-0.00444181872572913	-0.0010020271870162037	1.378893903907229e-17
N	0.786370746035787	1.0825987979580847	-0.009119164444729544
C	2.234250166579082	0.7768252961515294	-2.784442438437108e-17
C	2.2313400101466474	-0.7894597899645133	-1.6662230246251566e-16
N	0.7807085442653958	-1.0966990274278399	0.10079856724262903
Cu	-1.8819430410905174	0.09462190717002278	-0.2907681777581697
O	-3.222046453241596	0.3573028674958606	-1.6571983068988214
C	-4.080430772825597	0.10812968005356721	-0.6590374318129666
H	2.7460190530108606	-1.1487676078808335	0.8929607521165698
H	2.674758753851953	1.1492142924277746	-0.931514143741914
C	2.8867913956663136	-1.3939013149830162	-1.222316372324963
C	4.1501607846127495	-1.9834415275145252	-1.1139066638970998
C	2.2704446408069057	-1.3283475876421833	-2.478932044122033
C	4.792477602048228	-2.4980825271404394	-2.2425991142765644
H	4.636499807700856	-2.034818178770223	-0.14243514896346204
C	2.9081926876737905	-1.8429099707772996	-3.60613447606573
H	1.2848997304394627	-0.8824501350959124	-2.570691629243021
C	4.172231963221691	-2.4293336558206344	-3.4907815329193346
H	5.773445069543085	-2.955032041076189	-2.144392905559352
H	2.4174270916526517	-1.7893814494376876	-4.574044403262064
H	4.667797369511616	-2.8330353436294406	-4.369319486196838
C	2.9652832319358478	1.3792226169114525	1.1778203196143118
C	4.134112153992439	2.1202554820536474	0.9896037057270807
C	2.4843301207910056	1.1744839814915757	2.477060226654773
C	4.81960109399916	2.648494413322242	2.087028652874118
H	4.508225583573703	2.287799279618098	-0.0178155603705204
C	3.161095744066148	1.7062550067993318	3.5717855336592965
H	1.5589578700146849	0.6260358671561737	2.6215776075302526
C	4.334518419560566	2.4428618523091075	3.379351363659115
H	5.7269029219370555	3.225513895765496	1.9301988090896112
H	2.7689207010549466	1.5543609541873067	4.57380909746419
H	4.863097312483292	2.8592242364724174	4.232483586125497
C	0.26881665084507955	-2.4320787057852513	0.0630448378822151
C	0.49348885229414596	-3.324137580403636	1.128196947259375
C	-0.48486534484160004	-2.820342421556332	-1.0518582728827428
C	-0.023810806636660464	-4.6224205016261966	1.0032474801461237
C	-1.014251700005146	-4.104681026785341	-1.1356656954958784
C	-0.7688193288449758	-5.015083851426688	-0.10681475484813113
H	0.14177084002523754	-5.334428499646236	1.8066470190084718
H	-1.6074249577106778	-4.389802718223994	-1.9996061838480406
C	0.28828212554092825	2.420760831410258	-0.15187191699498176
C	0.08681236426273786	2.9689008067774996	-1.4310251887708512
C	-0.0026961090117672004	3.1416575584428283	1.009216290666403
C	-0.39509005146638665	4.284095715849324	-1.4955932371074325
C	-0.48919783478360146	4.442588489975481	0.9154997382190938
C	-0.6774955165256453	5.016635669304316	-0.34330917061305427
H	-0.5652326810975006	4.735226552713911	-2.4692583456596844
H	-0.7273980042096224	4.993747207764169	1.8202388205466709
H	-4.695811639121453	0.966633043525436	-0.34220008504896665
C	-4.894411632946924	-1.1523096396232437	-0.8067339137236919
C	-4.26936577645733	-2.341848656329295	-1.2104346259093304
C	-6.277455734191358	-1.1571010568300768	-0.5991958778504477
C	-5.010397915462836	-3.5082803466701664	-1.3597650338290301
H	-3.1975745842869117	-2.335111057879675	-1.374192084222063
C	-7.04222339513298	-2.3227003609767634	-0.7522628793584247
H	-6.771860821792715	-0.23157751772736768	-0.30970605433208764
C	-6.390715018276028	-3.5025545060967938	-1.1269238209153292
H	-6.96480986553649	-4.419227892643388	-1.2430042617578159
C	1.2440558988039572	-2.9156638369243315	2.3884403204145537
H	1.3408861952212094	-1.8246133865062528	2.3780987374479308
C	0.34418529699952827	2.174744362001403	-2.701424454637711
H	0.6620329230792424	1.1715572153945828	-2.4051060186969866
H	-1.05551251320734	6.032009219555077	-0.43001818785416784
H	0.13412489198913224	2.668806570406743	1.9737866700573583
C	1.485036591886593	2.7924370622906114	-3.5301343441430406
H	1.2214259477866833	3.7977027333798987	-3.8797320398543187
H	2.4077567789054126	2.875381387729195	-2.9428758104924038
H	1.6951170352406562	2.175224821988444	-4.411618466371762
C	-0.9439254327688156	2.009389945637582	-3.529416093994442
H	-1.7418344548368045	1.5555192127624153	-2.932733229868224
H	-1.298983441248469	2.977554865159082	-3.9035203965925125
H	-0.7498503633345925	1.3703059387191066	-4.40019256331658
H	-0.6673247495357444	-2.0932086478227228	-1.8364457891832378
H	-1.1659061129142314	-6.024757753936122	-0.16207003974388307
C	0.47563059991275347	-3.27896377971101	3.673003270057412
H	0.42399814078338816	-4.363517847501633	3.8204893480548434
H	0.9824621195006649	-2.852872024826187	4.5467435273257735
H	-0.5494996555202527	-2.8970194614576914	3.6480625974548717
C	2.6575662500112935	-3.5304782565832658	2.4121172376370588
H	2.5972120382685127	-4.623227063919906	2.4793066950634888
H	3.218958545941818	-3.2910424706441703	1.5025170812597732
H	3.226126232149635	-3.1685391392821423	3.2768821953441414
C	-8.538838449491138	-2.2864375730393762	-0.5411122476294724
H	-8.804697589355555	-1.6874575916795254	0.33794458197866334
H	-9.050538746636079	-1.8381964870872864	-1.4032629216802839
H	-8.950174549855394	-3.2919999457918316	-0.4015142997879087
H	-4.514871581064183	-4.432205698432263	-1.6497534582337283
N	-2.5	-2.5	-2.5
N	-2.5	-0.5	-2.5
O	-2.5	1.5	-0.5
