93
output/vis18/L3S4.xyz
C	-0.0013957970129907515	-0.0008788652638500871	-8.884876874216679e-20
N	0.7909000247980443	1.0745699876004728	-0.17201085899904905
C	2.2325373591617153	0.7752076142880908	5.542230246251566e-17
C	2.230006795851275	-0.787965270024241	-6.947778780781445e-17
N	0.789809652202602	-1.075272786969851	0.2138505743100869
Cu	-1.8953148709806777	-0.09262828678837234	-0.17265270027224472
O	-3.229264520063132	-0.8497184767712201	-1.3916131253659152
C	-4.019427814926989	-0.5156823995826466	-0.35802443222615127
H	2.807251729727783	-1.1433841238352938	0.8542968246865641
H	2.783948336910325	1.1583048875459878	-0.863263889457151
C	2.793843152928785	-1.4123384365455338	-1.2587981773762391
C	4.074539296173558	-1.9748702534013212	-1.2286521377873767
C	2.08642866850123	-1.39536438498294	-2.4669911788439904
C	4.64534468234806	-2.504686889474812	-2.387860179190623
H	4.6283206815250955	-1.9969706616175071	-0.2925141515936684
C	2.6531788535721557	-1.924745968766339	-3.62535893844068
H	1.0861424188337394	-0.9792906389433473	-2.4983922390606064
C	3.9355705695284566	-2.4795176015966454	-3.589488863817807
H	5.6394954943603945	-2.941573422259288	-2.349396944189162
H	2.091116565259675	-1.9068339550115052	-4.55499738634405
H	4.37542654958615	-2.8948965912921163	-4.491917022580075
C	2.8258547519407893	1.3244435762156677	1.281897304604131
C	4.0998871002295525	1.899156597084322	1.2728017475652704
C	2.1442127294515725	1.184537073293411	2.4994307019353412
C	4.693961153664537	2.3237920642538428	2.464177208558594
H	4.630276487714739	2.0149158249290324	0.33019453943884797
C	2.737314430232594	1.6073660675971417	3.687846232844779
H	1.1386086444334111	0.7749779057677625	2.5176065785437753
C	4.0152176113212015	2.1749961384616223	3.674619274993359
H	5.682873967239504	2.773748681705127	2.443786044809541
H	2.1915000786993977	1.4973992981164135	4.619860145439635
H	4.475036973106187	2.5057260488778144	4.60187388451749
C	0.29949146762609824	-2.4186926478609885	0.3142562277208352
C	0.6250671671155477	-3.2145598820007324	1.4279406980824878
C	-0.5054023632011688	-2.9169457605008895	-0.7189568997803893
C	0.1679210045490751	-4.540819103549044	1.4276699420761763
C	-0.9822110029955313	-4.2231887078050185	-0.6705575853671465
C	-0.6224876472108782	-5.046330636403729	0.3973107457888207
H	0.41627453351089727	-5.182620624287269	2.2684363618565544
H	-1.6259705302830625	-4.5896058338361385	-1.4638554176959833
C	0.31256507026690894	2.3738376868220503	-0.5424863602581321
C	-0.26399735413689784	2.5969396362080235	-1.8109270017332415
C	0.44616381805756156	3.4173533761490913	0.38269837303413495
C	-0.6921818915705895	3.9026537696632153	-2.097650254362069
C	0.014934664736300007	4.702342626431177	0.06613974657560201
C	-0.5585930091627733	4.9444237883338555	-1.1830221557908491
H	-1.1382323174894355	4.1048721691856045	-3.0668129220459943
H	0.11490969553776598	5.501986158761884	0.7944693384623488
H	-4.839090134040257	0.17936635560968903	-0.6252658409401571
C	-4.535610720693046	-1.658288546607087	0.4932351407460868
C	-3.6614473759494937	-2.475896489089907	1.2259421484209008
C	-5.905517304444991	-1.919220436325646	0.5537057180624839
C	-4.139157141606203	-3.508787534858193	2.0327220176342515
H	-2.591977612528302	-2.2803181483169634	1.1872862594992493
C	-6.418121591192453	-2.9558344594201107	1.3478890862666006
H	-6.591553581707525	-1.2928047224530002	-0.013947485657170688
C	-5.524385789518067	-3.7333756176801822	2.0865216092555565
H	-5.90885405632605	-4.530217049111455	2.7213342942046115
C	1.4106407727636356	-2.679357624686795	2.6174678032276932
H	1.5428044106636352	-1.6023596621181344	2.4817391716130146
C	-0.37952780800873587	1.5137562917009526	-2.8767097218083277
H	-0.19081392244228845	0.5513351625135606	-2.398755456749336
H	-0.7872579096311192	-2.2619810834779512	-1.5353792003080724
H	-0.9724504147325481	-6.07410277420361	0.43908865994016094
H	-0.9064896871314314	5.940360277632649	-1.4432627574301145
H	0.8702859179076767	3.204286874569167	1.3557593990357026
C	0.7007883573754764	1.7207489313478124	-3.955601718229462
H	0.6563884988030091	0.9182520444479596	-4.701544617568809
H	0.5589416390199223	2.67543611731297	-4.4761482919821765
H	1.7063211477080755	1.7214030724371323	-3.518518477112424
C	-1.7884614643037295	1.4083234404555582	-3.4859464213246087
H	-2.517475752379802	1.0956638504033585	-2.731766430520471
H	-2.1137350078182826	2.3489614658790376	-3.944895260539728
H	-1.7907046432484828	0.6405693899996326	-4.268533142497888
C	2.8048631332157745	-3.3276503747224164	2.7083103035594194
H	3.385946461775667	-2.8837273392011658	3.5250482320305765
H	2.72200910705203	-4.40432996629662	2.8982491817178078
H	3.3683209099562377	-3.2030037496570682	1.776119227282396
C	0.6298327691829403	-2.851515297465279	3.932650523327007
H	0.4809288736374566	-3.9082413869738173	4.18252605562934
H	1.1767241359374911	-2.3852038714625414	4.760818662625203
H	-0.35050396533337347	-2.3717199199359515	3.863556220672
C	-3.1893504770762577	-4.376325815176976	2.825695927795256
H	-2.9344829433414494	-5.29016205988532	2.273506958233849
H	-2.2469151019070295	-3.8577748437828365	3.0272690006394054
H	-3.628998447520998	-4.681652383828689	3.7824607675334203
C	-7.907285267944814	-3.210524552263881	1.3972122091262793
H	-8.460185381929556	-2.2954751146119223	1.6432659646523708
H	-8.28234510549975	-3.5602597177227975	0.42657357796909595
H	-8.162720581214831	-3.9687938816922044	2.144836683567139
N	-2.5	-2.5	-2.5
N	-2.5	-0.5	-2.5
F	-2.5	1.5	-0.5
