101
output/vis18/L6S1.xyz
C	-0.008215172154482087	-1.39408466319213e-05	-1.6662230246251566e-16
N	0.7858458934691935	1.0849909357152456	0.08759070668476748
C	2.2347377162772384	0.7720169848783686	-1.1111115123125783e-16
C	2.2346258138772437	-0.7856395650317367	1.1093345369377349e-16
N	0.778609860123383	-1.0923618128519748	-0.04838910111105221
H	2.605195358889681	1.1497983673883037	-0.9597068677772984
H	2.6396714495105513	-1.15069869543603	0.9452479697745299
Cu	-1.9134413421467635	0.009954443635718069	-0.10002285982391868
O	-3.4158308908842825	0.313349566921082	-1.2967192469710216
C	-4.144327240606769	-0.03480917804832506	-0.22353377523636364
C	3.0008030901654505	-1.4069859890119738	-1.1421531826802194
C	4.1994047136024815	-2.083726241193455	-0.8985275490300254
C	2.521249986370159	-1.3030760332822717	-2.453395258629795
C	4.9190646324597305	-2.6447533441979862	-1.9566166194228347
H	4.561635587114376	-2.177616992985009	0.12213723972425788
C	3.233712191272151	-1.8705770695547728	-3.507965650028978
H	1.5868743385550697	-0.7868054735597854	-2.6465948909637156
C	4.436574600512721	-2.5407517580961607	-3.2625430527107424
H	5.851053659113842	-3.1677427425065314	-1.7590419159479542
H	2.844625472865126	-1.7903118148394048	-4.519149962824983
H	4.991177740536527	-2.984066609153837	-4.085293865476942
C	3.0251320433667184	1.3844822700100066	1.1332723645326344
C	4.087469225762209	2.2528667685040737	0.874499812519841
C	2.6894453509915257	1.0900985139246613	2.4624224308213454
C	4.811964201388915	2.8190634935294594	1.9272208529014736
H	4.347729364310927	2.489321830621028	-0.15461585341954637
C	3.40712211573792	1.6556303767081755	3.5133104522202743
H	1.8638049966548471	0.4152182273021159	2.6672825392345616
C	4.472540355904103	2.5226202193791196	3.247631235444464
H	5.636828884982564	3.4934031967989996	1.7138709797955898
H	3.1348400688749964	1.4214333510502835	4.538796381001909
H	5.032636031684016	2.9648772907402035	4.067044212400381
C	0.2969504155851139	-2.4096647261742947	-0.3058601752914611
C	0.6972326334276289	-3.488219663485609	0.5033850615066703
C	-0.5240752996094686	-2.618472152478112	-1.4191085275065443
C	0.27987124363710336	-4.77638473836981	0.14041570996207836
C	-0.96623447443553	-3.9016979646396646	-1.7337190790134187
H	-0.7989921097936219	-1.766356386696843	-2.0326148919276257
C	-0.5504411143937076	-4.987392695209435	-0.9599296995578953
H	0.586300335653835	-5.612347088495049	0.7629688006610865
H	-1.6142395764814088	-4.0508897532193	-2.592724136008381
H	-0.87664880323856	-5.9935350869113595	-1.2077182411792369
C	0.344544001576917	2.4388257864482443	-0.07405754462979891
C	0.10327302653295067	2.9522640272769505	-1.3637928583496552
C	0.23406352904872363	3.2557157761596875	1.0533611397546596
C	-0.27005192947502965	4.297501599756895	-1.4798415154289462
C	-0.14306179724581192	4.59103199933427	0.9166842492646755
H	0.44486171309080813	2.8335403750029555	2.0287640289561994
C	-0.39637318232674756	5.111462113532884	-0.3533756424032704
H	-0.4672091566487704	4.698607814347623	-2.4699080901550388
H	-0.2359172114882815	5.2190968001404325	1.797930564453666
H	-0.6912150804959829	6.150934912340469	-0.4689019840881344
C	1.5138955746342437	-3.274484200763672	1.7258084138829242
C	2.7660613123268547	-3.8849173096580008	1.8610573507154344
C	1.049655167232247	-2.421598479779523	2.737144085693513
C	3.5704617914428263	-3.635677369262773	2.9803516378936448
H	3.130816127268206	-4.527905859988303	1.063489811806513
C	1.830105077242326	-2.1626758078944595	3.8666086703304803
H	0.07159613777553009	-1.9631700109402639	2.637358396058787
C	3.0912124560909486	-2.766226886594447	3.9663906547447003
H	3.714746943120905	-2.5519534737463556	4.832856354025819
C	0.22952557678692975	2.0936658414056413	-2.5795069442978527
C	1.397114283944563	2.103638145006431	-3.348798614653681
C	-0.835454948066622	1.2635323269297158	-2.953989573836931
C	1.5212328294715682	1.2804246842232239	-4.4781938309715095
H	2.220064562252455	2.7574089842505196	-3.0660989167637775
C	-0.7258165393523632	0.408842697898272	-4.05508396913676
H	-1.756671008457118	1.2747896007421509	-2.381900119411379
C	0.45745757246644136	0.43366947937925193	-4.80891075774321
H	0.5510656947206913	-0.2224435354137202	-5.673214489811578
H	-4.819688277472702	0.7506439018308666	0.15225931835592726
C	-4.829693785729844	-1.3758650263091483	-0.3138541531779026
C	-4.212516389963307	-2.4116745850497594	-1.031858157467863
C	-6.0927376237633615	-1.6129546417218263	0.24486955982256403
C	-4.80581044613583	-3.666961194337317	-1.130216845206683
H	-3.255069150999515	-2.211540711267325	-1.4986229024577185
C	-6.694341417702627	-2.8693240828573274	0.1426852043724764
H	-6.613406913978026	-0.8059608443948594	0.7524820412522082
C	-6.048571586217105	-3.9059925790589953	-0.5340307284428604
H	-4.298420862721833	-4.461952329054133	-1.6720549818901747
H	-7.673433242975048	-3.0349152764293783	0.5856101690065582
H	-6.514698044636307	-4.8849412435888	-0.6094775771304034
C	4.921225092616312	-4.299848610166251	3.1198010084897203
H	5.388729595747464	-4.466767617370319	2.14277558682143
H	5.605668911978248	-3.6958159181403674	3.725058883367205
H	4.831852761017316	-5.279679657716292	3.607734891922249
C	1.3110878485324355	-1.2671690228114245	4.967301181512669
H	0.7940680504291509	-1.8555523055682297	5.735713213525158
H	2.1253107491857257	-0.722526549120901	5.4587278127649945
H	0.5847192633528631	-0.5416803311911955	4.586369039530144
C	2.803799614212385	1.2750458654445598	-5.27716789875353
H	2.657054702009362	0.8371157203612261	-6.270250372050595
H	3.198017675514514	2.2891812383186276	-5.409551793653044
H	3.5773716250807435	0.6862786916940227	-4.767166654524765
C	-1.8737161036004077	-0.5119157756988628	-4.404371764082738
H	-2.392784207245189	-0.1743260708329819	-5.3109280364382805
H	-1.5170126525580523	-1.5314120414603392	-4.600886247296769
H	-2.604185367292648	-0.5435677138229094	-3.5886313521783695
N	-2.5	-2.5	-2.5
N	-2.5	-0.5	-2.5
O	-2.5	1.5	-0.5
