77
output/vis30/L1S4.xyz
C	-0.0001455344356555699	-0.0018186235627355718	1.1093345369377349e-16
N	0.8024402902171356	1.0604227750843727	-0.26507897892257354
C	2.233253164007609	0.772743952212734	-1.3966636576556624e-17
C	2.228040728428045	-0.7845618496499984	5.542230246251566e-17
N	0.7987968237240767	-1.0537007546215922	0.2757978982828639
Cu	-1.9017509044717595	-0.014865421748827434	-0.005095851934973472
O	-3.491964235433432	-0.0828627895926618	-1.0963878431078649
C	-4.109887033650313	0.10748714195211151	0.07916911808317834
H	2.843689321512062	-1.1541480721778152	0.8228469444260516
H	2.835767455976387	1.157487695124801	-0.8267934689288344
C	2.6870787067877977	-1.4062250289258869	-1.3042727191642034
C	3.957491952470226	-1.9850370105703223	-1.386448780760517
C	1.875123493156394	-1.372851202036924	-2.4458673314217982
C	4.417479761068028	-2.518635270992746	-2.5920387866976746
H	4.589294004055546	-2.0213566322048604	-0.5014562933930229
C	2.332910640125795	-1.906316077733802	-3.650071950441062
H	0.8807376512936735	-0.9385932795832646	-2.390474964716629
C	3.6053904254133013	-2.479607468441537	-3.726696211449256
H	5.404480523265497	-2.970234158667041	-2.6415692830908517
H	1.6934998798210363	-1.8786290702460018	-4.528064757486121
H	3.9585211656907573	-2.8989726377317906	-4.664753158045384
C	2.7326181243347114	1.3337527992025762	1.3185509925659455
C	3.9971705599955953	1.9271530233504541	1.3942782099014208
C	1.9585184042191075	1.2158819963986716	2.4793679407379248
C	4.481727245048246	2.4053141453367908	2.61430266063655
H	4.601358944982794	2.0234659355517235	0.49467936130840956
C	2.4417779547174776	1.6937966807429992	3.696251259441971
H	0.9792836672755646	0.752108849754946	2.4340563703029026
C	3.7034266095353616	2.2914367951954557	3.7678021881115407
H	5.462517600446981	2.8708944716851375	2.660510976708345
H	1.8281326543890126	1.6023842020679322	4.588072415351197
H	4.076192819794672	2.6685397954156707	4.716058951711898
C	0.3361000991440588	-2.3736493675860717	0.5458899940503422
C	0.860153426093123	-3.0692123539380973	1.6378387531643723
C	-0.6212996822838646	-2.971651554569193	-0.2807589295473171
C	0.42477739553058935	-4.366903865823916	1.9029537885567673
C	-1.0612014669979213	-4.264586312712039	-0.00012774633438726598
H	-1.0170273791627809	-2.419772588922865	-1.1274573984251388
C	-0.537017073700325	-4.967424558143781	1.0876769294147388
H	0.8232671179258607	-4.899778045714918	2.761470858597213
H	-1.810983070163136	-4.723117701242563	-0.6374403331293371
H	-0.8793615091779943	-5.976446408447371	1.2993101099592734
C	0.3448945188435646	2.3288558378105466	-0.7197339277367936
C	-0.760617242871354	2.409588953098505	-1.5806745521737402
C	0.9958340627935269	3.5030118817768834	-0.31793051244576204
C	-1.235836786764335	3.655526532562887	-1.9860100221002979
C	0.523833435269029	4.742638087853681	-0.7507560741032544
H	1.8472874442782306	3.4553288860472255	0.3494216592570871
C	-0.5989533475945663	4.828606170432662	-1.5747934634276173
H	-2.1025553312822645	3.700266996828527	-2.639272967204348
H	1.0334668214971487	5.645422279066123	-0.42517698119562203
H	-0.9690485334790524	5.797015050378299	-1.8988005846881941
H	-4.669523569870287	1.0565114746331037	0.16109135747583764
C	-4.915595535070181	-1.0614423156810895	0.5919684977796656
C	-4.398007875032576	-2.3600847723621725	0.5062266533738174
C	-6.202679929487987	-0.8831445181905491	1.1117659266461148
C	-5.117254958735988	-3.459314267855502	0.9817118464362476
H	-3.4047813335386596	-2.496791422468274	0.08771549571036669
C	-6.952723195310328	-1.9652913873406312	1.586030855755607
H	-6.625567180491783	0.1180583545453665	1.1536481491731227
C	-6.391049100539692	-3.245349233173669	1.5260294175656095
H	-6.9582807542697305	-4.094256788751357	1.9037335518953808
H	1.5689019731971128	-2.578986154984141	2.297803874089061
H	-1.2551608355286934	1.5082711568743636	-1.9264198994616375
C	-4.522954152711973	-4.848328700395932	0.9164797366007318
H	-4.39031652965398	-5.175518539704402	-0.1232495454736085
H	-3.534299005953218	-4.878190055312391	1.3898409942781829
H	-5.161755884002318	-5.584209999853485	1.4161660394039233
C	-8.348738288401222	-1.7524360712271592	2.1261048916661114
H	-8.41675031291761	-0.8237575505624654	2.7042083856680224
H	-9.082368862134977	-1.6809435795330971	1.3117485231673731
H	-8.659646823131819	-2.57855901236867	2.7747812201623585
C	-2.5	-1.5	-3.5
C	-2.5	-0.5	-3.5
C	-1.5	-0.5	-3.5
O	-2.5	3.5	-3.5
N	0.5	-0.5	3.5
