99
output/vis30/L3S6.xyz
C	-0.0045639757810436166	-0.0008145453991299373	-8.884876874216679e-20
N	0.7861242934328129	1.0828989422596333	0.006596786647785069
C	2.234043170964714	0.77664483780929	-8.884876874216679e-20
C	2.2316691628163294	-0.78946681341016	-1.6662230246251566e-16
N	0.7799036926296401	-1.098037921075406	0.08305986448257202
Cu	-1.88306211598979	0.0994917001800168	-0.28502028757633185
O	-3.2349950753588805	0.36288673944201055	-1.64106306590735
C	-4.0873992406927915	0.10043532657771392	-0.64241319492807
H	2.7346945945893606	-1.1489320827193592	0.8998157728946631
H	2.6633247505704425	1.148887226516464	-0.9369147183499613
C	2.903713346500775	-1.3930460905530806	-1.2134436580985275
C	4.158648077890035	-1.996456080219003	-1.0867905321034095
C	2.3100932174256603	-1.31371335017871	-2.4802692769828063
C	4.814686464655475	-2.512296122560042	-2.207133754427621
H	4.628250008502417	-2.057311063792851	-0.10762763056998709
C	2.9611888317261332	-1.8296014004748857	-3.5990937183498595
H	1.3316411704521365	-0.855198586832697	-2.58670561272898
C	4.216496519775575	-2.430754466379915	-3.465229684057784
H	5.789037171216301	-2.979933047390082	-2.0945806240405833
H	2.487989961488233	-1.7653916374637677	-4.575094740654462
H	4.722659002184271	-2.835448418668783	-4.337272846053038
C	2.9782270981861725	1.3807346104357958	1.1683073393047323
C	4.137345846964701	2.1330163214671165	0.9655959102290949
C	2.517354372550464	1.1689840981809678	2.473792019921449
C	4.832981520179624	2.665489810566157	2.0546218206451483
H	4.4957964472417915	2.3060947064871686	-0.04659159206474589
C	3.204004485667263	1.7048136199030968	3.560208954531601
H	1.5991422854888255	0.6115694742979062	2.62949995245931
C	4.367575762972885	2.452773301701231	3.353027060936152
H	5.732713836729354	3.2509712335765673	1.886519822246067
H	2.827200319209273	1.5469924877724281	4.5672376931448015
H	4.904185091347456	2.8722871432401553	4.199645402019456
C	0.266487162871643	-2.432491976983578	0.025720788439395903
C	0.47211114613909766	-3.3353991559900886	1.0855878006648598
C	-0.4693323097717019	-2.8080724460505206	-1.1051790103643375
C	-0.04911551078855858	-4.630062906234537	0.941025198616476
C	-1.0011149589137345	-4.089947644472412	-1.2098292838581033
C	-0.7775772515880717	-5.009949247944785	-0.1844947077260755
H	0.10036980930783335	-5.34990660223805	1.7405043430597074
H	-1.5802506480985579	-4.365734691212371	-2.086292676341137
C	0.2880057750342775	2.4220869406302907	-0.12647363323748168
C	0.0743403312949118	2.975474639923401	-1.4015177079355827
C	0.010629014963206007	3.138937864901505	1.0401951523842046
C	-0.405922747130244	4.291623189649453	-1.4557687959947703
C	-0.47482256925260846	4.440930570484699	0.9568844448460315
C	-0.6752748977225416	5.020128461487456	-0.2977099944326303
H	-0.5846736827173973	4.747472819285839	-2.42578411452695
H	-0.702753803431313	4.988844813980084	1.8661676483974077
H	-4.718606889353933	0.9464223550693328	-0.32445534882957533
C	-4.8683803630949445	-1.1792945080679296	-0.7752362982245425
C	-4.221357168425245	-2.347427940260877	-1.2053781587223789
C	-6.245567816895927	-1.242471137707191	-0.5269366394237504
C	-4.91263994817939	-3.5438443819552203	-1.336069154811738
H	-3.155738015428078	-2.304454687750237	-1.3997208208793501
C	-6.944606613087044	-2.441101915238369	-0.6636143646560694
H	-6.777360166755154	-0.3407009872379369	-0.2337517961015561
C	-6.292043422278933	-3.6192910302325467	-1.0620530441433593
H	-4.374345417564691	-4.444493249808042	-1.6207191067627844
H	-8.017450438863403	-2.457594666566507	-0.49079464747317375
C	1.2103450908152413	-2.942454377039783	2.358106316688731
H	1.307309324941476	-1.8511681428895461	2.361281604787044
C	0.3208771508670112	2.1874483076644062	-2.678131113106353
H	0.6287816341373156	1.178770525003013	-2.3894277013715044
H	-1.0523999950420033	6.03646626014608	-0.3765635294804062
H	0.1571373419049089	2.6616090477766936	2.0011314460473018
C	1.466746615317406	2.800492343066885	-3.503521348751052
H	1.21252657079051	3.8113928936275348	-3.843630016439658
H	2.3911919124793553	2.8691723437858943	-2.917136628574619
H	1.6693536861552434	2.1889916048587277	-4.390783098189959
C	-0.9692808308694745	2.0403502931267616	-3.506097263550151
H	-1.7700687124084262	1.5879260598402072	-2.9121948036163405
H	-1.3164915874837382	3.0142126164022662	-3.872483624917204
H	-0.7816083947858261	1.406546524972941	-4.382007293295471
H	-0.6360790746347509	-2.072636561079181	-1.8853932601086816
H	-1.1786930841198267	-6.017034257827085	-0.25469073156451
C	0.4315843640572683	-3.321797398481738	3.6317339791327763
H	0.3796659895785115	-4.40810659235769	3.7655437982495465
H	0.9312591619844283	-2.90634102444126	4.514615764869456
H	-0.5934198382136708	-2.9402931565184685	3.603449907803722
C	2.623488879787304	-3.5578653498905344	2.3862101631260613
H	2.5620928741994065	-4.65131349839837	2.4405954278825903
H	3.192092191433645	-3.308649407463284	1.4838819811296708
H	3.1851017951958327	-3.2059311784453404	3.2595819867015163
C	-7.0295019796290825	-4.898459131571858	-1.193948361372691
C	-8.040886535536277	-5.247834186918059	-0.2818461407996669
C	-6.736586542426072	-5.798945608724752	-2.2333452206679922
C	-8.73475937602317	-6.451058355996599	-0.4050567336069068
H	-8.26467711819054	-4.5790588541688155	0.5446987275658716
C	-7.427814731118361	-7.003802565876173	-2.355644868913601
H	-5.978496537805487	-5.536281188961631	-2.9660668236556917
C	-8.431094093745259	-7.336018915976689	-1.4422680204808973
H	-9.507825153687858	-6.70229699229575	0.3166341081212078
H	-7.189339135177868	-7.680111341296641	-3.1727130487065076
H	-8.970963029944418	-8.274255545275928	-1.5381094476843225
C	-2.5	-1.5	-3.5
N	-2.5	-0.5	-3.5
C	-1.5	-0.5	-3.5
O	-2.5	3.5	-3.5
N	0.5	-0.5	3.5
