94
output/vis30/L4S3.xyz
C	-0.006777024867856474	-0.0003811723035036865	-2.221334536937735e-16
N	0.7861015647462347	1.0836112614036226	0.06795473344271064
C	2.2345384846268717	0.7748437220970718	-8.884876874216679e-20
C	2.2333868982409846	-0.7880990707935681	1.1093345369377349e-16
N	0.7765325511726904	-1.095748268547244	-0.008813770460672193
Cu	-1.898177106934822	0.06734660446879753	-0.10450630512345754
O	-3.473953476020662	0.36476038360918805	-1.1518511712530786
C	-4.140607799319867	0.03642153954434174	-0.030456995815807464
H	2.6692734661229687	-1.1565509704131967	0.9307185974325168
H	2.6182488881773653	1.1481775939299455	-0.9559638101672007
C	2.952734020040699	-1.4099830225116914	-1.1726040119980465
C	4.099692086361591	-2.1819483284605314	-0.9697257713886747
C	2.4719003318436616	-1.2160372089425482	-2.4737832447303534
C	4.769220009696483	-2.7473601357648034	-2.0580587066781386
H	4.462996375951398	-2.3446416576280935	0.04216790573853185
C	3.137988401087289	-1.7805521431843405	-3.558966097077957
H	1.5747785471089775	-0.6269552621036889	-2.6358043028153837
C	4.289522491158998	-2.5473780669690447	-3.3537604635917986
H	5.661283986543786	-3.345644994932074	-1.8926295722955566
H	2.7545266583499517	-1.6200946008717265	-4.562661095058837
H	4.807607719867572	-2.989833954056971	-4.200416151445615
C	3.015922948406086	1.3930451832665935	1.1367193730962522
C	4.080990178170011	2.2587500569399976	0.878468549707219
C	2.6741834023576736	1.1064914530670849	2.4658234707407405
C	4.801897390166363	2.8293272636846174	1.9311774329390234
H	4.347702332843928	2.488471873724912	-0.15043782282734464
C	3.3902350533757923	1.6741336845695225	3.51694823026701
H	1.8458543185479435	0.435775069670064	2.6728454066744773
C	4.457644032919241	2.5385701261952636	3.251635021437451
H	5.628462898159628	3.501565398818631	1.717821929922628
H	3.117061058237393	1.442046132679451	4.542798802542427
H	5.015942550258309	2.9828429902992255	4.071159180787168
C	0.27299060034150413	-2.4143235275515558	-0.2078295489678894
C	0.6255950346324639	-3.4562490553914462	0.6699196392139722
C	-0.5548442238497593	-2.659009928375861	-1.3088603564877637
C	0.14819939023523876	-4.74564682275825	0.39210306983759863
C	-1.0503174381292775	-3.9399051466130275	-1.542973286136434
H	-0.8006452530072807	-1.8339879205428213	-1.970309508468657
C	-0.6878460447158488	-4.989557849568175	-0.6967308255284362
H	0.4123204960994411	-5.552743841284892	1.0695587688485935
H	-1.705064120783387	-4.116357652673079	-2.3913374736517756
H	-1.0621333491139993	-5.993084819953962	-0.8772649316543724
C	0.285252525867592	2.4196600857323234	-0.04768470301490274
C	-0.036888210365754404	2.9405601126491443	-1.314501610865872
C	0.11844253463803156	3.1855267326497607	1.1084222539598545
C	-0.5445860028541816	4.244407839600825	-1.3824465622994473
C	-0.38594938877635787	4.482193181409512	1.0194278257347897
H	0.3777636867979206	2.750007772004073	2.066515169579507
C	-0.7207777061454888	5.009917514944734	-0.2288765424713624
H	-0.8050581755443216	4.6525823096517005	-2.354670790167054
H	-0.5204637024932919	5.073223940215421	1.9207916543581551
H	-1.1194201037883524	6.017721075204776	-0.30641848421084933
C	1.4489296657859332	-3.2104694460576497	1.883550505160907
C	2.6698427425562596	-3.8763291061881393	2.064839203049447
C	1.0175313149306977	-2.3037312986897063	2.8651575472032564
C	3.452539772576591	-3.629451575858114	3.1950144523871318
H	3.010981924188288	-4.571259148527352	1.30223485280625
C	1.797223505997438	-2.0629903203256235	3.9961097603961253
H	0.06862466505387088	-1.7943273898575909	2.7387319663815806
C	3.020188644032703	-2.7191461212085626	4.161727652298097
H	4.401052664651039	-4.145566239940891	3.317663696523768
H	1.4464147931072615	-1.3623839375976843	4.749624593323261
H	3.6299725370510094	-2.524123780943167	5.039564009834539
C	0.16101439229628367	2.141172996482073	-2.5619021473278707
C	1.3704679539927578	2.2328396143491367	-3.26547395124594
C	-0.8590405723737105	1.3116147717745175	-3.0554103649617264
C	1.568095197182485	1.5024913123926953	-4.439881568122878
H	2.1559268795220636	2.8848997478552483	-2.8909539937025013
C	-0.6529129190082381	0.5738569926386748	-4.224356052255447
H	-1.8060360802859652	1.2406669460639508	-2.52777193381692
C	0.5566998922832016	0.6671736367396256	-4.919119221035541
H	2.511817474310502	1.5812614009932542	-4.972724628314309
H	-1.449042067452348	-0.06678991591474914	-4.59419683902537
H	0.7079926594857449	0.0958822620632721	-5.831412377763463
H	-4.72813440550512	0.8509196538909378	0.419109827637923
C	-4.89522006850582	-1.2637448440415011	-0.06371069015700132
C	-4.34560287777284	-2.372103876473155	-0.7280423083101285
C	-6.13581935593048	-1.4027779127748525	0.5679471158107646
C	-5.005784580805326	-3.595178311720466	-0.7116574120457736
H	-3.3884071968834677	-2.2570213172755818	-1.2252739676554194
C	-6.81166187045782	-2.630489712393821	0.5973755482140358
H	-6.5742921029775365	-0.544187594978124	1.0693914360325811
C	-6.22891102841556	-3.7295910139577466	-0.042692608312690006
H	-6.734854939935706	-4.692612673308259	-0.024110573508112243
C	-8.139759356919367	-2.7401414871068903	1.310030482075299
H	-8.093774608911808	-2.2597860524708597	2.2949705713022075
H	-8.937949106456042	-2.2403718487030004	0.745256082634053
H	-8.438379319975677	-3.784647076653581	1.4504775221650297
H	-4.564699803258963	-4.455976188229169	-1.2093796386089253
C	-2.5	-1.5	-3.5
N	-2.5	-0.5	-3.5
N	-1.5	-0.5	-3.5
F	-2.5	3.5	-3.5
N	0.5	-0.5	3.5
