103
output/vis30/L5S4.xyz
C	-0.005590690659735387	-0.00025491296107088557	-3.262168622523819e-16
N	0.7885134713622315	1.082746688775029	-0.05870366680568767
C	2.2337592276137506	0.7747822045555921	-2.6376681711721686e-16
C	2.2329798210459844	-0.7881638125945215	-2.221334536937735e-16
N	0.7783738056182095	-1.094400666117335	0.09311830875708532
Cu	-1.9193461473382794	0.10396939279522144	-0.09288641516776312
O	-3.41775053576141	0.8610748674802462	-1.1304991025209348
C	-4.082042601228591	-0.11363798228220534	-0.5036411822030156
H	2.7321083206555774	-1.1389415349309788	0.9021220762124851
H	2.7120598134996285	1.1565246210146818	-0.9080297445663342
C	2.8780315989352205	-1.434474892125054	-1.202714015183167
C	4.096440342165737	-2.1056816096094875	-1.0560566702487764
C	2.273245331044569	-1.369983026581878	-2.4637560047495968
C	4.712039382928298	-2.7005338704897084	-2.1594058211243756
H	4.554351376315191	-2.1711212714693153	-0.0720179792107411
C	2.8851551690266577	-1.9686643222115106	-3.5637483303791724
H	1.324177326681753	-0.856990049832861	-2.584294417303294
C	4.105388881935593	-2.6341850355031373	-3.415186033478921
H	5.658091535310729	-3.2209916408382084	-2.0360281316645756
H	2.4065405244016853	-1.914404178568108	-4.5366475023195685
H	4.578332498319673	-3.1028961984750785	-4.274201982939139
C	2.9124413739959136	1.346546757439606	1.2277947467909462
C	4.191073616126898	1.9027991398590465	1.1320713617913003
C	2.2958442522708467	1.261688388245577	2.483094689696264
C	4.850546163283403	2.3651734924187084	2.2738482303790053
H	4.674574988794951	1.9716423338490818	0.16017912122686379
C	2.9472737027276787	1.7331060082548495	3.6211908098119174
H	1.3017840835007435	0.8344726139009049	2.5713228202207
C	4.229195598078722	2.2825213701629803	3.521531267775303
H	5.844229838931746	2.7961085464937265	2.1862076466328797
H	2.448227044832123	1.6720394911071577	4.5844431774325365
H	4.736474418846761	2.651056602496653	4.409122497187218
C	0.2921889718189812	-2.43562986491573	0.03123613301776129
C	0.7828017516735907	-3.425013445573544	0.9089988119737855
C	-0.6536000528068766	-2.767524530585853	-0.9438589248083917
C	0.3109888884510863	-4.737475791327505	0.7582709012346215
C	-1.1465107481101589	-4.066194171056111	-1.0419988829115359
H	-1.0004761131562705	-1.9995063493383638	-1.6256274573982898
C	-0.6510580241215829	-5.059764839567526	-0.19719501516111088
H	0.6853540419822013	-5.499452698777548	1.4363976256265267
H	-1.9126498661567854	-4.289909028960887	-1.7764561002846
H	-1.019942722506225	-6.078817763575431	-0.27293309916521286
C	0.3111021541123924	2.415930301421877	-0.28807240733428113
C	0.029397774384137154	2.8430842689409013	-1.5981040216377975
C	0.14526996434848405	3.280954227944348	0.7958231879062171
C	-0.43441446135544637	4.152303439564513	-1.7826926270550238
C	-0.31618119377133214	4.579924445588372	0.5911640998018288
H	0.36120331672166706	2.9229750567294404	1.7930920334584926
C	-0.6085558567747462	5.0162558935395225	-0.701423635697195
H	-0.6648704317745091	4.484279370405053	-2.7907765109857046
H	-0.45082168942983136	5.244110935905844	1.4405491143909699
H	-0.9733884040501284	6.025702986127078	-0.8698069178694098
C	1.7500535217750368	-3.108452596901456	1.9906578628413072
C	2.998554262498984	-3.7400625942046237	2.0560249166103812
C	1.4431984511316558	-2.133685466021665	2.9518060908357344
C	3.9286338941976844	-3.3756208837576263	3.033049961522577
H	3.254226479076481	-4.49057312350855	1.3127946137605249
C	2.3695861542930636	-1.782670196575435	3.926936314983732
H	0.4851009282762402	-1.6290833499870163	2.909573624750131
C	3.636635991444407	-2.3823624806850403	3.975271028742678
C	0.20041103341648925	1.947028580843034	-2.7793766485375295
C	1.3985241692640398	1.9406447280819519	-3.502477049680743
C	-0.8581928076696448	1.1326349592805147	-3.212907024400594
C	1.5434202431644921	1.1346226587793198	-4.634414292448794
H	2.2213562661793445	2.574423885129036	-3.180581569161599
C	-0.7002821292665056	0.32721835320015047	-4.3404735139240485
H	-1.7973463905178875	1.1368802514389174	-2.6641750449080566
C	0.4974301840810962	0.3149035997588172	-5.071083492847971
H	-5.002366539269025	0.19935718911455336	0.010850228563054926
C	-4.276726197568006	-1.4030346858235163	-1.2695887249323814
C	-3.5438279052365376	-1.6086249955441663	-2.44297778557961
C	-5.179006131840453	-2.3993272832688115	-0.8628659194677558
C	-3.6609550123974595	-2.7916737701492997	-3.181860609627786
H	-2.8724679910266806	-0.8212666004555034	-2.764830847201741
C	-5.319735693848745	-3.5890895617163934	-1.5790726990783464
H	-5.7797950704534875	-2.2475357394526116	0.029883226970436202
C	-4.545694058295139	-3.7775208510270013	-2.7355592946073406
H	-4.645553314556629	-4.704415326679694	-3.29829999861179
H	-1.5281678629601472	-0.29742091758026445	-4.667128535843895
H	2.485735070506725	1.1378783717590584	-5.17693085118592
C	0.6344994080225848	-0.5544415841080668	-6.2998477131667165
H	0.024400685437901748	-0.17121758380413277	-7.127790690847903
H	1.6717996593231024	-0.6004501844305066	-6.648253564650662
H	0.2970721969806396	-1.579382950884469	-6.102102392314425
H	4.902008904491902	-3.8609084154786113	3.052161761304036
H	2.1145101503456747	-1.0102021236766647	4.64786749655538
C	4.651071678817719	-1.9322865443162645	4.999240138474612
H	5.580254034033629	-2.506893722667743	4.929621165899837
H	4.897607586981251	-0.8720635103080252	4.857282137134969
H	4.264455727931612	-2.040037360493367	6.02039658492814
C	-2.8279169475840016	-2.9883505471882286	-4.4291331251373
H	-3.08298683497127	-2.2480653163168527	-5.198433423786637
H	-1.7579980228310754	-2.8710550896667018	-4.212703552064763
H	-2.97524195155264	-3.982858922313396	-4.86333176056991
C	-6.307524116628134	-4.646372751975811	-1.1402371861377072
H	-7.237257989615768	-4.587611214674386	-1.7220955427447002
H	-5.902897492488227	-5.65549745068053	-1.2808622816976907
H	-6.573840756507178	-4.533575050069453	-0.08396824984913925
N	-2.5	-1.5	-3.5
N	-2.5	-0.5	-3.5
N	-1.5	-0.5	-3.5
F	-2.5	3.5	-3.5
N	0.5	-0.5	3.5
