107
output/vis30/L5S6.xyz
C	-0.0053086523262961816	-0.0006298949957165845	-5.559999999999999e-17
N	0.7879914579898041	1.0837172391770995	0.08760209805515212
C	2.2341542179665255	0.7751590857070493	-2.498890293094024e-16
C	2.232302792359771	-0.7881657117113325	1.664446049250313e-16
N	0.7769156842685393	-1.0950142948288686	-0.030631399586081798
Cu	-1.8987953900550556	0.07151555425355871	-0.09310385705179752
O	-3.4841469856335374	0.37786879020980324	-1.1305374323788653
C	-4.142115819891694	0.01376241219303398	-0.016819627621990352
H	2.6521741839314688	-1.1498875570883946	0.9399409029915976
H	2.606871621265703	1.149287323435578	-0.9600894432354029
C	2.9794683893448335	-1.4088721465617062	-1.155062709300797
C	4.1657752881875325	-2.1123844370250744	-0.9284683383971807
C	2.4975177285864167	-1.2704071480201469	-2.4626761631828735
C	4.871269644892361	-2.6663085938909066	-1.9995959830306853
H	4.5312309368031345	-2.2296851567787717	0.08878815336889073
C	3.1998427300824326	-1.823941310544178	-3.5310014709391035
H	1.5733850684052508	-0.7303737753868603	-2.6416998287380182
C	4.389115978513265	-2.523170954154206	-3.3019658491162787
H	5.793148429805567	-3.2116920941057594	-1.8156574236681988
H	2.817303594490757	-1.7088616783088864	-4.541237902664552
H	4.935163486314437	-2.957110617529798	-4.13534084140583
C	3.044714000466022	1.369561950932112	1.1294245671166396
C	4.200348838526599	2.1072704680446397	0.8628595940981721
C	2.6651216093776027	1.1519455391098143	2.4610689092490903
C	4.973372440240425	2.617003650570177	1.9099475960472803
H	4.499432189869924	2.281048354683038	-0.1682409272210343
C	3.432444683120136	1.6600648945530283	3.5070800904160446
H	1.7688608249173958	0.5777885812495058	2.673109504370334
C	4.5916745692780605	2.394154351842896	3.233426532547427
H	5.870625526290031	3.189035607165196	1.6896723359554262
H	3.125686420416945	1.4852851620569008	4.5350211749981835
H	5.190283625008293	2.7920213279779422	4.048263919821057
C	0.2715068256904354	-2.4174486325374307	-0.20592734397755158
C	0.6193796001559126	-3.4426094968754826	0.6943282058611318
C	-0.5552275334055046	-2.681081700674127	-1.3027296118795921
C	0.13821665356391977	-4.735205178807124	0.4445826115484685
C	-1.0532910745989632	-3.965818925928115	-1.5106204028745678
H	-0.7986806467979091	-1.8673162647077746	-1.9793839156463224
C	-0.6967802414740993	-4.998509430135268	-0.6412984668894038
H	0.3993207527525109	-5.528895835326022	1.1388376519633856
H	-1.7075523967356885	-4.158887988948877	-2.3557795649619178
H	-1.0758044817209158	-6.003758056275654	-0.8011618928134957
C	0.28500058689169094	2.4183345200033157	-0.045779412327655644
C	-0.03580061990806693	2.92377673576923	-1.319909802922536
C	0.11195947255691441	3.1964854677519803	1.1009338191594669
C	-0.5464026576341503	4.225517196259659	-1.4034082016625287
C	-0.3956120504945808	4.4909013525743315	0.9959787997142059
H	0.3673546193507662	2.772276930786559	2.0650887321064504
C	-0.7276616893883867	5.003814821693679	-0.2590261327487911
H	-0.8055897362048912	4.621912255442206	-2.3808130846857463
H	-0.5349307965535761	5.091440971624909	1.890290391357264
H	-1.128589829701049	6.009667873613646	-0.3491440235847288
C	1.4497757315750253	-3.1527270782719348	1.893258937099902
C	2.721651165491866	-3.7180795656158834	2.04776901978987
C	0.9938769193342556	-2.252355482388924	2.8688250508638733
C	3.5353269106889065	-3.3537185122823794	3.123178167273627
H	3.087655990658455	-4.415045802257694	1.2987235252195284
C	1.8060227955277357	-1.9023546551571393	3.943524686445366
H	0.0036369394555668677	-1.8214028059085563	2.7738859499398436
C	3.100723854882892	-2.425665066432755	4.077254377820099
C	0.16424437049547325	2.1081518633669187	-2.5560343068998512
C	1.3728984776022433	2.178209759856027	-3.2589255292902433
C	-0.8533106325527537	1.2710363869334933	-3.0439424385057547
C	1.5726698809763155	1.4187566546201063	-4.414657759238631
H	2.1627260082452575	2.833818699711251	-2.8996859855032753
C	-0.6394884291818954	0.5075741826151181	-4.191351078844044
H	-1.805513015310881	1.2111427689979424	-2.52469701791898
C	0.573507245723752	0.5654170178953646	-4.895018876222137
H	-4.755997023069586	0.8004502312630037	0.4455868101703457
C	-4.8430203935447675	-1.3136294009166078	-0.06231746407280375
C	-4.265908121263743	-2.3777183945703553	-0.7731126376408229
C	-6.059413053668167	-1.5405752410050315	0.5972275018426981
C	-4.849624951214072	-3.636863970054459	-0.7759660867022184
H	-3.331389565590876	-2.201022944672676	-1.2940025368407924
C	-6.6476679404829	-2.803845997728481	0.5923743228900512
H	-6.54264670755859	-0.7250867108760779	1.1260058230471803
C	-6.050308511218477	-3.8821254949433173	-0.08205311438916008
H	-4.35214093144135	-4.456112911009114	-1.2891856038831722
H	-7.598505444286208	-2.9501863394638588	1.0980701660031507
H	4.529108927139619	-3.786745708288417	3.2128484594461413
H	1.4336567862934202	-1.1986056390976516	4.685127786197663
H	2.5225473072743627	1.4830733486146714	-4.939906593490557
H	-1.4372446799539427	-0.1402521713976972	-4.548772174193198
C	0.7830858632638987	-0.27559535611054686	-6.132996678865991
H	0.07775180817413019	0.000292421172296109	-6.926869411157858
H	1.7960377744854417	-0.15926666664469247	-6.532510785700507
H	0.6245079615979054	-1.3403842455090071	-5.92077667482112
C	4.004362962006036	-1.9586102352015442	5.192764292030311
H	4.850056599088868	-2.6376747140662373	5.342048570311162
H	4.41211128548453	-0.9645003311821023	4.9636990536571926
H	3.4622352292452696	-1.8766662787197472	6.141938885752554
C	-6.662663761020512	-5.231692349696825	-0.06548046853463924
C	-7.285029138707764	-5.728764665114735	1.0934124772982707
C	-6.635236025837631	-6.055448745384963	-1.2049014486406002
C	-7.859640407021215	-6.999062509339645	1.112318753630588
H	-7.294070145828715	-5.119689231574311	1.993215025887563
C	-7.206299800972421	-7.32745082786165	-1.1860994034387689
H	-6.184685444190815	-5.680924347075104	-2.119922616946752
C	-7.822390686853166	-7.806030835543547	-0.0273655398696247
H	-8.329195106209081	-7.363450265068245	2.022617423269113
H	-7.17965952711809	-7.942247371786721	-2.082319396178695
H	-8.269002316628267	-8.796727941065036	-0.012761524635115429
N	-2.5	-1.5	-3.5
N	-2.5	-0.5	-3.5
N	-1.5	-0.5	-3.5
F	-2.5	3.5	-3.5
N	0.5	-0.5	3.5
