69
nhc opt
C         -1.36010        0.02350       -0.48880
N         -2.29220       -0.96520       -0.53170
C         -3.40120       -0.73490        0.42250
C         -3.27580        0.79840        0.66120
N         -1.86050        1.01140        0.28590
Cu         0.39520        0.03330       -1.21460
O          1.65840        0.53260       -2.56640
C          2.56240        0.04570       -1.70540
H         -3.41730        1.01850        1.72170
H         -4.35160       -0.97380       -0.06140
C         -4.22630        1.63940       -0.16750
C         -5.32720        2.24680        0.44480
C         -4.04460        1.78640       -1.54930
C         -6.23990        2.98700       -0.30970
H         -5.46940        2.14330        1.51840
C         -4.95480        2.52580       -2.30350
H         -3.18640        1.32910       -2.03360
C         -6.05510        3.12730       -1.68600
H         -7.08820        3.45840        0.17880
H         -4.80240        2.63630       -3.37360
H         -6.76060        3.70710       -2.27460
C         -3.26150       -1.51320        1.72000
C         -4.40960       -1.97990        2.37050
C         -2.00930       -1.71380        2.31380
C         -4.30940       -2.63960        3.59720
H         -5.38540       -1.83090        1.91270
C         -1.90870       -2.37370        3.53820
H         -1.11130       -1.37110        1.81340
C         -3.05770       -2.83760        4.18400
H         -5.20720       -3.00340        4.08930
H         -0.92940       -2.52870        3.98240
H         -2.97760       -3.35580        5.13560
C         -1.21100        2.25870        0.52020
C         -1.05490        2.71030        1.83390
C         -0.73980        3.02280       -0.55200
C         -0.41860        3.92790        2.07430
C         -0.09560        4.23510       -0.30300
H         -0.85630        2.64920       -1.56380
C          0.06470        4.69080        1.00780
H         -0.28780        4.27290        3.09590
H          0.28540        4.81780       -1.13620
H          0.56610        5.63550        1.19780
C         -2.20580       -2.13170       -1.33690
C         -1.53010       -2.09090       -2.56660
C         -2.80420       -3.32780       -0.91740
C         -1.41280       -3.24740       -3.33460
C         -2.69650       -4.47340       -1.70650
H         -3.32520       -3.37680        0.03120
C         -1.99250       -4.44550       -2.91060
H         -0.87590       -3.20100       -4.27790
H         -3.15800       -5.39570       -1.36440
H         -1.90320       -5.34320       -3.51550
H          3.11600       -0.83880       -2.05850
C          3.46070        1.04780       -1.02990
C          2.92380        2.21720       -0.47050
C          4.84590        0.85910       -0.96040
C          3.73920        3.15330        0.15430
H          1.85120        2.37160       -0.51170
C          5.66420        1.80340       -0.33680
H          5.28530       -0.04420       -1.37450
C          5.12910        2.96430        0.23160
H          3.29100        4.04200        0.59550
H          6.73670        1.62720       -0.28550
H         -1.10140       -1.16000       -2.92210
H         -1.40870        2.09690        2.65760
C          6.01460        3.99800        0.88770
H          6.98080        3.57300        1.18070
H          6.21930        4.83750        0.20890
H          5.54460        4.41810        1.78500
