72
nhc opt
C         -1.06970       -0.01460       -0.58240
N         -2.19510       -0.74810       -0.77790
C         -3.37750       -0.16930       -0.09440
C         -2.89820        1.29370        0.14040
N         -1.43080        1.11810        0.05590
Cu         0.69720       -0.48960       -1.10080
O          1.95740       -0.59040       -2.55890
C          2.72650       -1.19060       -1.63790
H         -3.17900        1.61560        1.14550
H         -4.23220       -0.19170       -0.77530
C         -3.41630        2.28740       -0.88060
C         -4.43620        3.17630       -0.52650
C         -2.91980        2.30240       -2.19090
C         -4.96070        4.06540       -1.46680
H         -4.82010        3.17510        0.49150
C         -3.44200        3.19050       -3.13050
H         -2.11770        1.62630       -2.47370
C         -4.46430        4.07350       -2.77140
H         -5.74940        4.75460       -1.17780
H         -3.04690        3.19630       -4.14260
H         -4.86670        4.76800       -3.50370
C         -3.72690       -0.86300        1.20920
C         -5.06440       -1.11310        1.53400
C         -2.72220       -1.21020        2.12060
C         -5.39610       -1.71070        2.75250
H         -5.84850       -0.84760        0.82810
C         -3.05330       -1.80720        3.33580
H         -1.68230       -1.01550        1.88240
C         -4.39030       -2.06110        3.65520
H         -6.43780       -1.90690        2.99170
H         -2.26360       -2.07800        4.03100
H         -4.64620       -2.53170        4.60040
C         -0.54110        2.18010        0.38740
C         -0.57950        2.72490        1.67290
C          0.35070        2.68110       -0.56720
C          0.27700        3.77410        2.00370
C          1.21330        3.72120       -0.22360
H          0.36680        2.24960       -1.56300
C          1.17610        4.27380        1.05910
H          0.25510        4.18580        3.00860
H          1.91090        4.10210       -0.96310
H          1.84680        5.08740        1.32050
C         -2.25530       -1.95680       -1.52650
C         -1.44030       -2.12440       -2.65680
C         -3.13010       -2.98340       -1.14620
C         -1.46660       -3.32750       -3.35990
C         -3.16340       -4.17360       -1.87360
H         -3.76130       -2.86890       -0.27380
C         -2.32600       -4.35880       -2.97430
H         -0.81730       -3.44630       -4.22260
H         -3.84090       -4.96430       -1.56290
H         -2.34770       -5.29210       -3.52950
H          2.97420       -2.24500       -1.85570
C          3.94080       -0.41290       -1.19160
C          3.83780        0.96030       -0.93580
C          5.19270       -1.02720       -1.07350
C          4.94260        1.70300       -0.51210
H          2.86770        1.43740       -1.04360
C          6.32060       -0.30820       -0.66190
H          5.28900       -2.08660       -1.30020
C          6.17660        1.05310       -0.37250
H          7.04300        1.62130       -0.03850
H         -1.24380        2.29860        2.41800
H         -0.78160       -1.32670       -2.98280
C          4.80040        3.17630       -0.20230
H          4.55250        3.75020       -1.10500
H          3.99460        3.35260        0.52020
H          5.72510        3.59260        0.21110
C          7.66740       -0.98750       -0.55930
H          7.57240       -2.00730       -0.16910
H          8.15030       -1.06130       -1.54310
H          8.34760       -0.43540        0.09830
