81
Title Card Required
C         -1.30980        0.11200       -0.40210
N         -2.33900       -0.77310       -0.34910
C         -3.44040       -0.30080        0.51790
C         -3.16160        1.23250        0.54180
N         -1.72300        1.24770        0.20060
Cu         0.44310       -0.18720       -1.07530
O          1.72040       -0.08710       -2.50970
C          2.56380       -0.52320       -1.55880
H         -3.31120        1.61740        1.55300
H         -4.39920       -0.51220        0.03760
C         -3.99790        2.03070       -0.43890
C         -5.08490        2.77700        0.02790
C         -3.73040        1.99840       -1.81390
C         -5.89970        3.47810       -0.86340
H         -5.29300        2.81250        1.09520
C         -4.54270        2.69910       -2.70480
H         -2.88110        1.43280       -2.18630
C         -5.62980        3.43970       -2.23240
H         -6.73780        4.05850       -0.48750
H         -4.32390        2.67020       -3.76860
H         -6.25870        3.98870       -2.92780
C         -3.41170       -0.89350        1.91700
C         -4.61590       -1.14160        2.58540
C         -2.20060       -1.13660        2.57670
C         -4.61210       -1.62730        3.89480
H         -5.56050       -0.95960        2.07700
C         -2.19620       -1.62280        3.88380
H         -1.26110       -0.96430        2.06450
C         -3.40120       -1.86880        4.54710
H         -5.55380       -1.82270        4.40070
H         -1.24850       -1.81410        4.37930
H         -3.39650       -2.25230        5.56360
C         -0.93670        2.43340        0.29600
C         -0.80250        3.06440        1.53540
C         -0.29520        2.94050       -0.83440
C         -0.01050        4.20930        1.65570
C          0.52020        4.07450       -0.73090
H         -0.40440        2.42750       -1.78490
C          0.64650        4.69520        0.51630
H          1.27590        5.57840        0.60610
C         -2.32080       -2.05760       -0.95670
C         -1.59030       -2.25250       -2.13580
C         -3.00420       -3.13100       -0.37520
C         -1.47130       -3.52690       -2.69440
C         -2.92130       -4.40810       -0.94160
H         -3.56610       -2.99160        0.54100
C         -2.13750       -4.59670       -2.08480
H         -2.04770       -5.59380       -2.51130
H          3.01200       -1.51060       -1.75730
C          3.58880        0.47080       -1.07110
C          3.19430        1.73070       -0.59760
C          4.95650        0.17900       -1.10210
C          4.13090        2.66310       -0.16550
H          2.13530        1.95960       -0.53880
C          5.89740        1.11700       -0.67100
H          5.28690       -0.79960       -1.44040
C          5.50510        2.37400       -0.19880
H          3.79020        3.62510        0.21400
H          6.95460        0.86070       -0.69460
H         -1.29180        2.64210        2.40920
H         -1.09940       -1.41280       -2.61700
C         -3.67240       -5.56230       -0.31860
H         -4.68680       -5.64140       -0.73230
H         -3.16820       -6.51590       -0.50740
H         -3.77080       -5.43890        0.76540
C         -0.65280       -3.72120       -3.94970
H          0.18320       -3.01430       -3.98820
H         -0.24930       -4.73770       -4.00900
H         -1.26340       -3.55850       -4.84780
C          0.12930        4.91470        2.98450
H          1.13430        5.33150        3.11130
H         -0.58140        5.74810        3.06470
H         -0.06410        4.23610        3.82200
C          1.28150        4.56980       -1.93650
H          1.60780        5.60710       -1.80930
H          2.17380        3.95190       -2.09880
H          0.67430        4.50820       -2.84610
C          6.52200        3.39970        0.24480
H          7.47840        2.93270        0.50390
H          6.72100        4.13340       -0.54860
H          6.17180        3.96010        1.11990
