84
nhc opt
C          0.43650        0.08610        0.30810
N          1.50730       -0.63910        0.66440
C          2.80360        0.02650        0.40610
C          2.34580        1.39600       -0.20080
N          0.87190        1.22260       -0.27990
Cu        -1.34020       -0.40100        0.78200
O         -2.58500       -0.44840        2.25870
C         -3.44880       -0.87270        1.32610
H          2.75830        1.49800       -1.20620
H          3.30680        0.19270        1.36510
C          2.76360        2.59220        0.62600
C          3.80190        3.41640        0.18120
C          2.16000        2.86210        1.86140
C          4.23560        4.49350        0.95810
H          4.27770        3.21100       -0.77500
C          2.58940        3.93720        2.63720
H          1.34580        2.23420        2.20960
C          3.62940        4.75620        2.18730
H          5.04250        5.12710        0.60020
H          2.11010        4.13800        3.59150
H          3.96190        5.59600        2.79110
C          3.71090       -0.76540       -0.50720
C          5.03870       -1.01530       -0.15330
C          3.22790       -1.23530       -1.73500
C          5.87850       -1.72310       -1.01760
H          5.41690       -0.65840        0.80190
C          4.06040       -1.94750       -2.59460
H          2.18760       -1.06920       -1.99610
C          5.39110       -2.19040       -2.23900
H          6.90940       -1.91430       -0.73240
H          3.66930       -2.32090       -3.53720
H          6.04160       -2.74680       -2.90830
C         -0.00690        2.26410       -0.71560
C         -0.02370        2.68260       -2.05930
C         -0.86920        2.83930        0.22650
C         -0.89890        3.72490       -2.40020
C         -1.75040        3.85020       -0.14550
C         -1.75390        4.30470       -1.46510
H         -0.92670        4.07360       -3.42840
H         -2.42230        4.28030        0.59160
C          1.41570       -1.89130        1.35940
C          1.34460       -1.91870        2.76350
C          1.38150       -3.06390        0.60030
C          1.26400       -3.17740        3.37620
C          1.29150       -4.29980        1.23450
C          1.24080       -4.35430        2.62890
H          1.20370       -3.23260        4.45970
H          1.25070       -5.20730        0.63980
H         -3.77780       -1.92000        1.43090
C         -4.60000        0.05910        1.04280
C         -4.36030        1.43210        0.88200
C         -5.92220       -0.40060        0.99300
C         -5.40750        2.31590        0.64000
H         -3.33580        1.78490        0.92670
C         -6.97760        0.48430        0.75600
H         -6.12460       -1.45830        1.14350
C         -6.72400        1.84450        0.57220
H         -5.19960        3.37410        0.49830
H         -7.99790        0.11040        0.72100
H         -7.54340        2.53350        0.38430
C          0.84620        2.03140       -3.12600
H          1.25600        1.10830       -2.70190
C          1.32330       -0.64820        3.59790
H          1.34430        0.20010        2.90850
H          1.17180       -5.31300        3.13620
H          1.40380       -2.99540       -0.48030
C          2.57010       -0.54270        4.49460
H          2.60020       -1.35660        5.22870
H          3.49360       -0.59200        3.90470
H          2.56620        0.40540        5.04520
C          0.01950       -0.53280        4.40980
H         -0.85850       -0.59370        3.75850
H         -0.04950       -1.33000        5.16000
H         -0.00550        0.42570        4.94360
H         -0.85280        2.46510        1.24490
H         -2.42820        5.10040       -1.76900
C          0.03960        1.62480       -4.37350
H         -0.32170        2.50020       -4.92480
H          0.67150        1.04510       -5.05650
H         -0.83010        1.01650       -4.10740
C          2.01990        2.95120       -3.51720
H          1.64630        3.86350       -3.99720
H          2.60250        3.25920       -2.64220
H          2.69170        2.44780       -4.22240
