87
nhc opt
C          0.59840        0.08470        0.30630
N          1.65850       -0.64740        0.68030
C          2.96310        0.01060        0.44580
C          2.52430        1.38380       -0.16660
N          1.05100        1.21930       -0.27250
Cu        -1.18870       -0.39420        0.74860
O         -2.45850       -0.44790        2.20350
C         -3.30990       -0.85760        1.25350
H          2.95540        1.48540       -1.16420
H          3.45060        0.17230        1.41360
C          2.93400        2.57590        0.67010
C          3.98670        3.39340        0.24710
C          2.30840        2.84830        1.89390
C          4.41270        4.46610        1.03400
H          4.47960        3.18610       -0.70000
C          2.73010        3.91910        2.67980
H          1.48300        2.22570        2.22500
C          3.78460        4.73130        2.25160
H          5.23090        5.09460        0.69300
H          2.23370        4.12190        3.62480
H          4.11110        5.56780        2.86320
C          3.88140       -0.78540       -0.45290
C          5.20140       -1.04340       -0.07640
C          3.41710       -1.25070       -1.68950
C          6.05200       -1.75490       -0.92700
H          5.56500       -0.69000        0.88580
C          4.26020       -1.96660       -2.53560
H          2.38250       -1.07820       -1.96850
C          5.58320       -2.21780       -2.15730
H          7.07670       -1.95250       -0.62420
H          3.88340       -2.33650       -3.48540
H          6.24190       -2.77710       -2.81600
C          0.18650        2.26660       -0.72250
C          0.19820        2.68860       -2.06510
C         -0.69130        2.84370        0.20390
C         -0.66480        3.73640       -2.42020
C         -1.56030        3.85970       -0.18260
C         -1.53530        4.31780       -1.50060
H         -0.67060        4.08800       -3.44790
H         -2.24490        4.29060        0.54210
C          1.54710       -1.90010        1.37130
C          1.45300       -1.92940        2.77400
C          1.51700       -3.07110        0.60950
C          1.35400       -3.18850        3.38310
C          1.40840       -4.30740        1.24010
C          1.33500       -4.36390        2.63330
H          1.27570       -3.24510        4.46530
H          1.37100       -5.21370        0.64320
H         -3.64820       -1.90330        1.34390
C         -4.44800        0.08540        0.95590
C         -4.19620        1.45850        0.81500
C         -5.76780       -0.36830        0.86540
C         -5.23820        2.33950        0.55030
H         -3.17270        1.80860        0.88900
C         -6.83250        0.50700        0.60620
H         -5.97250       -1.42910        0.99820
C         -6.55140        1.86730        0.44050
H         -7.36230        2.56140        0.23070
C          1.08470        2.03540       -3.11670
H          1.48090        1.10870       -2.68760
C          1.42590       -0.66000        3.60990
H          1.46400        0.18910        2.92230
H          1.25130       -5.32300        3.13780
H          1.55690       -3.00090       -0.47040
C          2.65800       -0.56390        4.52780
H          2.67030       -1.37900        5.26110
H          3.59100       -0.61840        3.95360
H          2.65100        0.38350        5.07960
C          0.10930       -0.53720        4.39960
H         -0.75780       -0.59200        3.73340
H          0.02250       -1.33490        5.14760
H          0.08130        0.42080        4.93420
H         -0.69670        2.46680        1.22150
H         -2.19970        5.11750       -1.81560
C          0.29980        1.63690       -4.38070
H         -0.04550        2.51590       -4.93640
H          0.94120        1.05500       -5.05290
H         -0.57860        1.03320       -4.13300
C          2.27090        2.94940       -3.48290
H          1.91160        3.86500       -3.96750
H          2.83830        3.25190       -2.59610
H          2.95330        2.44410       -4.17650
C         -8.24970       -0.01500        0.53680
H         -8.30140       -0.96060       -0.01580
H         -8.65190       -0.20600        1.54070
H         -8.91850        0.70010        0.04570
H         -5.03200        3.39940        0.41850
