89
Title Card Required
C          0.77580        0.29410       -0.29530
N          1.69400        1.27640       -0.30400
C          3.04510        0.84150        0.12400
C          2.78950       -0.64110        0.54730
N          1.34880       -0.81380        0.21260
Cu        -0.99940        0.49140       -0.92980
O         -2.21750        0.59610       -2.40520
C         -3.17410        0.65430       -1.46030
H          2.91870       -0.74340        1.62660
H          3.70590        0.87230       -0.74950
C          3.66200       -1.64900       -0.16130
C          4.58030       -2.41880        0.55750
C          3.55330       -1.81900       -1.54730
C          5.39280       -3.34400       -0.10330
H          4.65270       -2.29710        1.63560
C          4.36180       -2.74190       -2.20630
H          2.83300       -1.23190       -2.10840
C          5.28480       -3.50660       -1.48560
H          6.10550       -3.93850        0.46210
H          4.26770       -2.86170       -3.28200
H          5.91380       -4.22860       -1.99950
C          3.61490        1.70990        1.22230
C          4.83110        2.37310        1.04480
C          2.92150        1.86470        2.43080
C          5.35460        3.17780        2.06070
H          5.37120        2.26070        0.10760
C          3.44020        2.66650        3.44460
H          1.97430        1.35350        2.57410
C          4.66010        3.32630        3.26160
H          6.30170        3.68890        1.91080
H          2.89400        2.77640        4.37770
H          5.06470        3.95310        4.05160
C          0.70340       -2.08440        0.24130
C          0.65550       -2.83760        1.42900
C          0.14680       -2.58260       -0.94170
C          0.06100       -4.10730        1.38410
C         -0.47350       -3.83000       -0.95420
H          0.20920       -1.97870       -1.84170
C         -0.50630       -4.60040        0.20970
H          0.01590       -4.69070        2.29940
H         -0.91630       -4.20120       -1.87380
H         -0.98000       -5.57780        0.20660
C          1.45990        2.55070       -0.91300
C          1.53810        2.68430       -2.31160
C          1.14780        3.64460       -0.10240
C          1.27890        3.94250       -2.87010
C          0.89560        4.88940       -0.67750
H          1.09630        3.50290        0.97090
C          0.95830        5.03610       -2.06440
H          1.32750        4.05410       -3.94940
H          0.64680        5.73680       -0.04520
H          0.75780        6.00140       -2.52090
C          1.18300       -2.30500        2.71330
C          2.19940       -2.98180        3.40310
C          0.67380       -1.11270        3.25230
C          2.70900       -2.46950        4.59850
H          2.60220       -3.89960        2.98330
C          1.17940       -0.60570        4.44910
H         -0.12120       -0.59060        2.73180
C          2.20310       -1.27810        5.12260
H          3.50320       -2.99960        5.11740
H          0.77020        0.31550        4.85590
H          2.60130       -0.87740        6.05060
C          1.89590        1.52780       -3.18840
C          3.23690        1.29680       -3.52680
C          0.90260        0.67650       -3.69930
C          3.58830        0.22800       -4.35510
H          4.00530        1.96300       -3.14200
C          1.25970       -0.39860       -4.51770
H         -0.14170        0.85100       -3.45590
C          2.59890       -0.62540       -4.84840
H          4.63190        0.05970       -4.60650
H          0.48180       -1.05190       -4.90410
H          2.86910       -1.45930       -5.49110
H         -3.73680        1.59880       -1.42270
C         -4.06640       -0.55050       -1.34830
C         -3.52810       -1.83290       -1.53950
C         -5.43050       -0.44310       -1.04890
C         -4.31590       -2.96760       -1.39090
H         -2.47440       -1.91810       -1.78240
C         -6.21960       -1.58590       -0.90330
H         -5.87330        0.53850       -0.91010
C         -5.67860       -2.86670       -1.06470
H         -3.86930       -3.95230       -1.52030
H         -7.27460       -1.47760       -0.65970
C         -6.53510       -4.10400       -0.92880
H         -5.98890       -4.91840       -0.43810
H         -7.44010       -3.90500       -0.34440
H         -6.85620       -4.47780       -1.91090
