104
nhc opt
C          1.05470        0.20290       -0.46710
N          2.13700        0.91570       -0.83320
C          3.39470        0.46520       -0.19370
C          2.87730       -0.61060        0.81570
N          1.42690       -0.66750        0.48960
Cu        -0.66640        0.42230       -1.23270
O         -1.88420        0.10460       -2.68140
C         -2.79760        0.70300       -1.89800
H          2.99820       -0.23820        1.83430
H          4.01810       -0.00930       -0.95970
C          3.55210       -1.95460        0.68930
C          4.38320       -2.42360        1.71040
C          3.36130       -2.73370       -0.45870
C          5.02700       -3.65710        1.58350
H          4.51950       -1.82310        2.60650
C          4.00190       -3.96450       -0.58520
H          2.71140       -2.37570       -1.25050
C          4.83690       -4.42910        0.43590
H          5.67210       -4.01500        2.38150
H          3.84790       -4.55950       -1.48090
H          5.33430       -5.39040        0.33800
C          4.16490        1.58350        0.47120
C          5.52670        1.75860        0.21460
C          3.52700        2.43370        1.38500
C          6.24720        2.76430        0.86520
H          6.02710        1.10330       -0.49460
C          4.24180        3.43820        2.03390
H          2.46940        2.30040        1.58860
C          5.60680        3.60540        1.77600
H          7.30620        2.89040        0.65740
H          3.73440        4.09150        2.73880
H          6.16510        4.38930        2.28050
C          0.55060       -1.64390        1.04980
C          0.39040       -1.74650        2.44500
C         -0.12380       -2.51470        0.18820
C         -0.43990       -2.75970        2.94380
C         -0.97330       -3.49130        0.70440
H          0.02740       -2.40940       -0.88180
C         -1.12380       -3.62150        2.08620
H         -0.57110       -2.84000        4.01920
H         -1.50620       -4.15290        0.02780
H         -1.77920       -4.38500        2.49550
C          2.13040        1.80070       -1.95970
C          2.20160        1.27710       -3.26460
C          2.04280        3.17720       -1.74100
C          2.16960        2.17620       -4.33830
C          2.01450        4.05550       -2.82370
H          1.98600        3.54320       -0.72240
C          2.07530        3.55210       -4.12420
H          2.21490        1.78200       -5.34940
H          1.93990        5.12520       -2.65050
H          2.04860        4.22930       -4.97350
C          1.06320       -0.78740        3.36040
C          2.03220       -1.21780        4.27530
C          0.78070        0.58520        3.28010
C          2.73510       -0.29450        5.05310
H          2.26220       -2.27750        4.34610
C          1.47750        1.49830        4.06610
H          0.01960        0.93250        2.59080
C          2.48500        1.07900        4.94770
C          2.31390       -0.19250       -3.51080
C          3.57280       -0.79560       -3.61790
C          1.16750       -0.99250       -3.65310
C          3.69030       -2.16930       -3.84510
H          4.46750       -0.18460       -3.52450
C          1.29550       -2.36470       -3.86730
H          0.17960       -0.54520       -3.58950
C          2.55450       -2.97720       -3.96510
H         -3.21430        1.64080       -2.29360
C         -3.84400       -0.18680       -1.28950
C         -3.50730       -1.49030       -0.90560
C         -5.15480        0.24850       -1.04790
C         -4.41650       -2.30290       -0.23480
H         -2.50440       -1.84480       -1.11580
C         -6.06290       -0.56960       -0.37920
H         -5.45700        1.24300       -1.36110
C         -5.71350       -1.85690        0.06450
H         -4.09230       -3.29200        0.07040
H         -7.06370       -0.18770       -0.19520
H          3.50020       -0.64720        5.74110
H          1.24510        2.55810        3.98330
H          4.67840       -2.61740       -3.91660
H          0.39550       -2.96810       -3.96720
C          2.66720       -4.46730       -4.19060
H          2.21880       -4.76100       -5.14790
H          3.71170       -4.79610       -4.19710
H          2.14220       -5.02780       -3.40680
C          3.29920        2.09080        5.71740
H          3.83590        1.62970        6.55290
H          4.04500        2.56020        5.06140
H          2.66910        2.89270        6.11890
C         -6.73150       -2.70370        0.84440
C         -7.98220       -2.95050       -0.03090
C         -6.15900       -4.07160        1.26090
C         -7.14550       -1.94700        2.12870
H         -7.71440       -3.48970       -0.94680
H         -8.72250       -3.54840        0.51570
H         -8.46190       -2.01120       -0.32500
H         -5.87400       -4.67360        0.39050
H         -5.27890       -3.96150        1.90530
H         -6.91410       -4.63500        1.82140
H         -6.27340       -1.76140        2.76660
H         -7.60230       -0.97900        1.89830
H         -7.87350       -2.53340        2.70360
