122
Title Card Required
C         -0.36360        0.00900        0.29460
N          0.08410        0.64820        1.38640
C          1.35050        1.38390        1.18020
C          1.67380        1.06380       -0.31450
N          0.55060        0.15700       -0.68870
Cu        -2.08630       -0.81040        0.24160
O         -3.98340       -0.38660        0.16070
C         -4.08230       -1.72720        0.08670
H          2.61400        0.51450       -0.37200
H          1.15160        2.45370        1.29820
C          1.74060        2.27670       -1.21290
C          2.96230        2.67470       -1.76400
C          0.58260        3.01030       -1.50130
C          3.03040        3.79710       -2.59290
H          3.85760        2.09550       -1.55160
C          0.64790        4.12210       -2.33870
H         -0.36930        2.71400       -1.07140
C          1.87180        4.51960       -2.88550
H          3.98480        4.10010       -3.01520
H         -0.25860        4.68090       -2.55090
H          1.92120        5.38820       -3.53660
C          2.44820        0.96010        2.12900
C          3.29890        1.91580        2.69120
C          2.65050       -0.39420        2.42180
C          4.34220        1.52540        3.53460
H          3.14360        2.96900        2.46780
C          3.67910       -0.78390        3.27680
H          1.98490       -1.13800        1.99520
C          4.53210        0.17480        3.83210
H          4.99790        2.27680        3.96610
H          3.81250       -1.83570        3.51280
H          5.33490       -0.12970        4.49810
C          0.32590       -0.22400       -2.04470
C          1.33540       -0.84940       -2.80140
C         -0.89830        0.09890       -2.63740
C          1.07320       -1.13000       -4.15130
C         -1.15040       -0.21700       -3.96970
H         -1.64020        0.61740       -2.04400
C         -0.15680       -0.83040       -4.73440
H          1.84970       -1.61620       -4.73520
H         -2.11160        0.03850       -4.40670
H         -0.33620       -1.07300       -5.77790
C         -0.68280        0.77960        2.59170
C         -1.57110        1.85960        2.73520
C         -0.54290       -0.17490        3.59980
C         -2.29480        1.96690        3.92930
C         -1.27710       -0.05360        4.77860
H          0.12010       -1.01690        3.44980
C         -2.14800        1.02310        4.94700
H         -2.98820        2.79500        4.04490
H         -1.17060       -0.80780        5.55200
H         -2.72290        1.12390        5.86360
C          2.65420       -1.21070       -2.22080
C          3.83210       -0.68790       -2.77570
C          2.74320       -2.05080       -1.10830
C          5.07990       -0.98070       -2.22190
H          3.76000       -0.01480       -3.62640
C          3.98190       -2.38140       -0.54190
H          1.83000       -2.44530       -0.67320
C          5.13640       -1.83160       -1.10700
H          6.10420       -2.05700       -0.67130
C         -1.78490        2.85000        1.63930
C         -1.03260        4.02990        1.59280
C         -2.77160        2.61200        0.67560
C         -1.24130        4.97490        0.58240
H         -0.28170        4.20390        2.35880
C         -3.03080        3.56170       -0.32410
H         -3.33880        1.68660        0.71430
C         -2.25360        4.72650       -0.35480
H         -2.44240        5.46640       -1.13200
H         -4.55750       -2.20320        0.96130
C         -4.64430       -2.25260       -1.21180
C         -4.08770       -1.84940       -2.43410
C         -5.76400       -3.09350       -1.23160
C         -4.61750       -2.29160       -3.64290
H         -3.22040       -1.19950       -2.41900
C         -6.30240       -3.53740       -2.44260
H         -6.21460       -3.40310       -0.29160
C         -5.72950       -3.14150       -3.65220
H         -4.16040       -1.97940       -4.57900
H         -7.17210       -4.18990       -2.43940
H         -6.14560       -3.48850       -4.59440
C          6.34540       -0.35950       -2.79510
H          6.05210        0.22570       -3.67740
C          4.00920       -3.33920        0.64280
H          3.22420       -3.00140        1.33090
C         -0.42940        6.26120        0.52070
H         -0.54380        6.66790       -0.49380
C         -4.14990        3.33700       -1.33160
H         -4.20910        4.23580       -1.96190
C          1.07480        6.03950        0.75960
H          1.62470        6.97560        0.60670
H          1.27260        5.71220        1.78760
H          1.47910        5.28720        0.07590
C         -0.99290        7.30100        1.50940
H         -0.44380        8.24800        1.43850
H         -2.05200        7.50000        1.31250
H         -0.90760        6.93500        2.53990
C         -5.50800        3.15930       -0.62530
H         -5.51680        2.23560       -0.03650
H         -5.72240        4.00040        0.04400
H         -6.31550        3.09200       -1.36420
C         -3.86750        2.12840       -2.24360
H         -4.66920        2.01210       -2.98340
H         -2.92360        2.25970       -2.78610
H         -3.82280        1.20560       -1.65290
C          5.33010       -3.34270        1.42170
H          5.61220       -2.33260        1.73660
H          5.23570       -3.96570        2.31860
H          6.14850       -3.75890        0.82190
C          3.63800       -4.76690        0.19320
H          4.38910       -5.15780       -0.50360
H          3.58470       -5.44300        1.05500
H          2.66740       -4.78730       -0.31360
C          6.99230        0.61020       -1.78790
H          6.28890        1.39460       -1.48570
H          7.30890        0.08130       -0.88110
H          7.87640        1.09120       -2.22320
C          7.35290       -1.42690       -3.25930
H          8.22840       -0.95630       -3.72190
H          7.70710       -2.03140       -2.41600
H          6.90010       -2.10550       -3.99040
